 ****** HSPICE -- D-2010.03-SP1 32-BIT (May 26 2010) winnt ******               
  Copyright (C) 2010 Synopsys, Inc. All Rights Reserved.                        
  Unpublished-rights reserved under US copyright laws.
  This program is protected by law and is subject to the 
  terms and conditions of the license agreement from Synopsys.
  Use of this program is your acceptance to be bound by the 
  license agreement. HSPICE is the trademark of Synopsys, Inc.
  Input File: d:\electrical course\t5\prelec\phase2\sp\phase2.sp                
  lic:  
  lic: FLEXlm: v8.5b 
  lic: USER:   M.Amin               HOSTNAME: DESKTOP-QPS973P 
  lic: HOSTID: "0862661f051d 40e230cb1c34 444553544f53 00ff5ed341cb 00ffd8d4b75b
  
  lic: Using FLEXlm license file: 
  lic: 27000@elena 
  lic: Checkout 1 hspice 
  lic: License/Maintenance for hspice will expire on 31-dec-2020/2007.9 
  lic: NODE LOCKED license on hostid "0862661f051d 40e230cb1c34 444553544f53 00f
 f
  lic:   
 Init: read install configuration file: C:\synopsys\Hspice_D-2010.03-SP1\meta.cfg
 (d:\electrical course\t5\prelec\phase2\sp\phase2.sp:81)
 **warning** the element "Project:phase1" declared without nodes and value. Please enter valid nodes with corresponding value.
  **warning** (d:\electrical course\t5\prelec\phase2\sp\phase2.sp:19) dc      may cause confusion with .dc

 **warning**  unknown model parameter:  ikf     


 **warning**  unknown model parameter:  isr     


 **warning**  unknown model parameter:  nr      

1****** HSPICE -- D-2010.03-SP1 32-BIT (May 26 2010) winnt ******               
 ******  
 project:phase2

  ******  circuit name directory
 circuit number to circuit name directory
   number circuitname                     definition         multiplier
        0 main circuit
        1 x_opamp.                        ua741              1.00 
1****** HSPICE -- D-2010.03-SP1 32-BIT (May 26 2010) winnt ******               
 ******  
 project:phase2

  ******  diode model parameters tnom=  25.000 temp=  25.000 *****
 ********************************************************
 *** common model parameters model name:   0:dzener  ****
 ********************************************************

     names  values   units     names  values   units     names  values   units
     -----  ------   -----     -----  ------   -----     -----  ------   -----

   1*** dc breakdown parameters ***
       vb=   3.00  volts        ibv=   1.00m amps   

   2*** parasitic resistance parameters ***
       rs=  10.00  ohms   

   3*** capacitance parameters ***
       fc= 500.00m              fcs= 500.00m                m= 500.00m        
     mjsw= 330.00m               pb= 600.00m volts        php= 600.00m volts  
       tt=   0.    secs         cjo=   0.    f/area       cjp=   0.    f/pj   

   4*** temperature effect parameters ***
     tlev=   0.               tlevc=   0.                 tcv=   0.    v/deg k
      trs=   0.    /deg         cta=   0.    /deg         ctp=   0.    /deg   
      xti=   3.00            xtitun=   3.00               keg=   1.00         
       eg=   1.11  ev          gap1= 702.00u  ev/deg     gap2=   1.11k  deg   
     ttt1=   0.    /deg        ttt2=   0.    /deg2        tm1=   0.    /deg   
      tm2=   0.    /deg2        tpb=   0.    v/deg k     tphp=   0.    v/deg k
     tref=  25.00   deg c 

   5*** noise parameters ***
       kf=   0.                  af=   1.00         

   ***  level   1  model parameters  ***

    level=   1.00                is=  10.00f amps         jsw=   0.    amps   
        n=   1.00               nbv=   1.00                ik=   0.    amp    
     area=   1.00                pj=   0.                 ikr=   0.    amp    
    expli=   0.    amps      explir=   0.    amps        jtun=   0.    amps   
   jtunsw=   0.    amps        ntun=  30.00         
  
 ********************************************************
 *** common model parameters model name:   0:d1n4148 ****
 ********************************************************

     names  values   units     names  values   units     names  values   units
     -----  ------   -----     -----  ------   -----     -----  ------   -----

   1*** dc breakdown parameters ***
       vb= 100.00  volts        ibv= 100.00u amps   

   2*** parasitic resistance parameters ***
       rs= 701.70m ohms   

   3*** capacitance parameters ***
       fc= 500.00m              fcs= 500.00m                m= 550.00m        
     mjsw= 330.00m               pb= 750.00m volts        php= 750.00m volts  
       tt=  11.07n secs         cjo= 950.00f f/area       cjp=   0.    f/pj   

   4*** temperature effect parameters ***
     tlev=   0.               tlevc=   0.                 tcv=   0.    v/deg k
      trs=   0.    /deg         cta=   0.    /deg         ctp=   0.    /deg   
      xti=   3.00            xtitun=   3.00               keg=   1.00         
       eg=   1.11  ev          gap1= 702.00u  ev/deg     gap2=   1.11k  deg   
     ttt1=   0.    /deg        ttt2=   0.    /deg2        tm1=   0.    /deg   
      tm2=   0.    /deg2        tpb=   0.    v/deg k     tphp=   0.    v/deg k
     tref=  25.00   deg c 

   5*** noise parameters ***
       kf=   0.                  af=   1.00         

   ***  level   1  model parameters  ***

    level=   1.00                is=   5.84n amps         jsw=   0.    amps   
        n=   1.94               nbv=   1.94                ik=   0.    amp    
     area=   1.00                pj=   0.                 ikr=   0.    amp    
    expli=   0.    amps      explir=   0.    amps        jtun=   0.    amps   
   jtunsw=   0.    amps        ntun=  30.00         
  
 ********************************************************
 *** common model parameters model name:   1:dx      ****
 ********************************************************

     names  values   units     names  values   units     names  values   units
     -----  ------   -----     -----  ------   -----     -----  ------   -----

   1*** dc breakdown parameters ***
       vb=   0.    volts        ibv=   1.00m amps   

   2*** parasitic resistance parameters ***
       rs=   1.00  ohms   

   3*** capacitance parameters ***
       fc= 500.00m              fcs= 500.00m                m= 500.00m        
     mjsw= 330.00m               pb= 800.00m volts        php= 800.00m volts  
       tt=   0.    secs         cjo=   0.    f/area       cjp=   0.    f/pj   

   4*** temperature effect parameters ***
     tlev=   0.               tlevc=   0.                 tcv=   0.    v/deg k
      trs=   0.    /deg         cta=   0.    /deg         ctp=   0.    /deg   
      xti=   3.00            xtitun=   3.00               keg=   1.00         
       eg=   1.11  ev          gap1= 702.00u  ev/deg     gap2=   1.11k  deg   
     ttt1=   0.    /deg        ttt2=   0.    /deg2        tm1=   0.    /deg   
      tm2=   0.    /deg2        tpb=   0.    v/deg k     tphp=   0.    v/deg k
     tref=  25.00   deg c 

   5*** noise parameters ***
       kf=   0.                  af=   1.00         

   ***  level   1  model parameters  ***

    level=   1.00                is= 8.0e-16 amps         jsw=   0.    amps   
        n=   1.00               nbv=   1.00                ik=   0.    amp    
     area=   1.00                pj=   0.                 ikr=   0.    amp    
    expli=   0.    amps      explir=   0.    amps        jtun=   0.    amps   
   jtunsw=   0.    amps        ntun=  30.00         
  
1****** HSPICE -- D-2010.03-SP1 32-BIT (May 26 2010) winnt ******               
 ******  
 project:phase2

  ******  bjt   model parameters tnom=  25.000 temp=  25.000 *****

 ************************************************************************
 *** bjt model parameters   model name:   0:qbd135p  model type:npn   ***
 ************************************************************************

     names  values   units     names  values   units     names  values   units
     -----  ------   -----     -----  ------   -----     -----  ------   -----

   1*** basic dc parameters ***
    level=   1.00                bf= 124.20                br=  13.26         
      brs=   0.                bulk=  gnd                  is=  48.15f amps   
      iss=   0.    amps          nf= 989.70m               nr= 989.50m        
       ns=   1.00               ibe=   0.    amps         ibc=   0.    amps   
     subs=   1.00             expli=   0.    amps   

   2*** low current beta degradation effect parameters ***
      isc= 129.50f amps         ise=  13.89f amps          nc=   1.18         
       ne=   1.60         

   3*** base width modulation parameters ***
      vaf= 222.00  volts        var=  81.40  volts  

   4*** high current beta degradation effect parameters ***
      ikf=   1.60  amps         nkf= 500.00m              ikr= 290.00m amps   

   5*** parasitic resistor parameters ***
      irb=   1.00u amps          rb= 500.00m ohms         rbm= 500.00m ohms   
       re= 165.00m ohms          rc=  96.00m ohms         rcc=   0.    ohms   
       vo=   0.    volts      gamma=   0.           

   6*** junction capacitor parameters ***
     cbcp=   0.    farad       cbep=   0.    farad       ccsp=   0.    farad  
      cjc=  30.40p farad        cje= 124.30p farad        cjs=   0.    farad  
       fc= 935.90m              mjc= 437.10m              mje= 347.60m        
      mjs= 333.00m              vjc= 564.20m volts        vje= 731.30m volts  
      vjs= 750.00m volts       xcjc= 150.00m              qco=   0.    coul   

   7*** transit time parameters ***
      itf=   3.35  amps         ptf=   0.    deg k         tf= 647.80p secs   
       tr=   0.    secs         vtf=   2.65               xtf=  29.00         

   8*** temperature compensation parameters ***
     tlev=   0.               tlevc=   0.                tre1=   0.    /deg   
     tre2=   0.    /deg2       trb1=   0.    /deg        trc1=   0.    /deg   
     trb2=   0.    /deg2       trm1=   0.    /deg         xtb=   0.           
     trm2=   0.    /deg2        xti=   3.00               cte=   0.    /deg   
      ctc=   0.    /deg         cts=   0.    /deg        trc2=   0.    /deg2  
     tref=  25.00   deg c       bex=   2.42              bexv=   1.90         

   9*** noise parameters ***
       kf=   0.                  af=   1.00         

 ************************************************************************
 *** bjt model parameters   model name:   0:bc107n   model type:npn   ***
 ************************************************************************

     names  values   units     names  values   units     names  values   units
     -----  ------   -----     -----  ------   -----     -----  ------   -----

   1*** basic dc parameters ***
    level=   1.00                bf= 200.00                br=   1.00         
      brs=   0.                bulk=  gnd                  is= 1.0e-16 amps   
      iss=   0.    amps          nf=   1.00                nr=   1.00         
       ns=   1.00               ibe=   0.    amps         ibc=   0.    amps   
     subs=   1.00             expli=   0.    amps   

   2*** low current beta degradation effect parameters ***
      isc=   0.    amps         ise=   0.    amps          nc=   2.00         
       ne=   1.50         

   3*** base width modulation parameters ***
      vaf= 100.00  volts        var=   0.    volts  

   4*** high current beta degradation effect parameters ***
      ikf=   0.    amps         nkf= 500.00m              ikr=   0.    amps   

   5*** parasitic resistor parameters ***
      irb=   0.    amps          rb= 100.00  ohms         rbm= 100.00  ohms   
       re=   0.    ohms          rc=   0.    ohms         rcc=   0.    ohms   
       vo=   0.    volts      gamma=   0.           

   6*** junction capacitor parameters ***
     cbcp=   0.    farad       cbep=   0.    farad       ccsp=   0.    farad  
      cjc=   2.00p farad        cje=   3.00p farad        cjs=   2.00p farad  
       fc= 500.00m              mjc= 330.00m              mje= 330.00m        
      mjs= 500.00m              vjc= 750.00m volts        vje= 750.00m volts  
      vjs= 750.00m volts       xcjc=   1.00               qco=   0.    coul   

   7*** transit time parameters ***
      itf=   0.    amps         ptf=   0.    deg k         tf= 300.00p secs   
       tr=   6.00n secs         vtf=   0.                 xtf=   0.           

   8*** temperature compensation parameters ***
     tlev=   0.               tlevc=   0.                tre1=   0.    /deg   
     tre2=   0.    /deg2       trb1=   0.    /deg        trc1=   0.    /deg   
     trb2=   0.    /deg2       trm1=   0.    /deg         xtb=   0.           
     trm2=   0.    /deg2        xti=   3.00               cte=   0.    /deg   
      ctc=   0.    /deg         cts=   0.    /deg        trc2=   0.    /deg2  
     tref=  25.00   deg c       bex=   2.42              bexv=   1.90         

   9*** noise parameters ***
       kf=   0.                  af=   1.00         

 ************************************************************************
 *** bjt model parameters   model name:   0:bc107p   model type:pnp   ***
 ************************************************************************

     names  values   units     names  values   units     names  values   units
     -----  ------   -----     -----  ------   -----     -----  ------   -----

   1*** basic dc parameters ***
    level=   1.00                bf=  50.00                br=   1.00         
      brs=   0.                bulk=  gnd                  is= 1.0e-16 amps   
      iss=   0.    amps          nf=   1.00                nr=   1.00         
       ns=   1.00               ibe=   0.    amps         ibc=   0.    amps   
     subs=  -1.00             expli=   0.    amps   

   2*** low current beta degradation effect parameters ***
      isc=   0.    amps         ise=   0.    amps          nc=   2.00         
       ne=   1.50         

   3*** base width modulation parameters ***
      vaf=  70.00  volts        var=   0.    volts  

   4*** high current beta degradation effect parameters ***
      ikf=   0.    amps         nkf= 500.00m              ikr=   0.    amps   

   5*** parasitic resistor parameters ***
      irb=   0.    amps          rb= 100.00  ohms         rbm= 100.00  ohms   
       re=   0.    ohms          rc=   0.    ohms         rcc=   0.    ohms   
       vo=   0.    volts      gamma=   0.           

   6*** junction capacitor parameters ***
     cbcp=   0.    farad       cbep=   0.    farad       ccsp=   0.    farad  
      cjc=   2.00p farad        cje=   3.00p farad        cjs=   2.00p farad  
       fc= 500.00m              mjc= 330.00m              mje= 330.00m        
      mjs= 500.00m              vjc= 750.00m volts        vje= 750.00m volts  
      vjs= 750.00m volts       xcjc=   1.00               qco=   0.    coul   

   7*** transit time parameters ***
      itf=   0.    amps         ptf=   0.    deg k         tf= 300.00p secs   
       tr=   6.00n secs         vtf=   0.                 xtf=   0.           

   8*** temperature compensation parameters ***
     tlev=   0.               tlevc=   0.                tre1=   0.    /deg   
     tre2=   0.    /deg2       trb1=   0.    /deg        trc1=   0.    /deg   
     trb2=   0.    /deg2       trm1=   0.    /deg         xtb=   0.           
     trm2=   0.    /deg2        xti=   3.00               cte=   0.    /deg   
      ctc=   0.    /deg         cts=   0.    /deg        trc2=   0.    /deg2  
     tref=  25.00   deg c       bex=   2.42              bexv=   1.90         

   9*** noise parameters ***
       kf=   0.                  af=   1.00         

 ************************************************************************
 *** bjt model parameters   model name:   0:qn       model type:npn   ***
 ************************************************************************

     names  values   units     names  values   units     names  values   units
     -----  ------   -----     -----  ------   -----     -----  ------   -----

   1*** basic dc parameters ***
    level=   1.00                bf= 124.20                br=  13.26         
      brs=   0.                bulk=  gnd                  is=  48.15f amps   
      iss=   0.    amps          nf= 989.70m               nr= 989.50m        
       ns=   1.00               ibe=   0.    amps         ibc=   0.    amps   
     subs=   1.00             expli=   0.    amps   

   2*** low current beta degradation effect parameters ***
      isc= 129.50f amps         ise=  13.89f amps          nc=   1.18         
       ne=   1.60         

   3*** base width modulation parameters ***
      vaf= 222.00  volts        var=  81.40  volts  

   4*** high current beta degradation effect parameters ***
      ikf=   1.60  amps         nkf= 500.00m              ikr= 290.00m amps   

   5*** parasitic resistor parameters ***
      irb=   1.00u amps          rb= 500.00m ohms         rbm= 500.00m ohms   
       re= 165.00m ohms          rc=  96.00m ohms         rcc=   0.    ohms   
       vo=   0.    volts      gamma=   0.           

   6*** junction capacitor parameters ***
     cbcp=   0.    farad       cbep=   0.    farad       ccsp=   0.    farad  
      cjc=  30.40p farad        cje= 124.30p farad        cjs=   0.    farad  
       fc= 935.90m              mjc= 437.10m              mje= 347.60m        
      mjs= 333.00m              vjc= 564.20m volts        vje= 731.30m volts  
      vjs= 750.00m volts       xcjc= 150.00m              qco=   0.    coul   

   7*** transit time parameters ***
      itf=   3.35  amps         ptf=   0.    deg k         tf= 647.80p secs   
       tr=   0.    secs         vtf=   2.65               xtf=  29.00         

   8*** temperature compensation parameters ***
     tlev=   0.               tlevc=   0.                tre1=   0.    /deg   
     tre2=   0.    /deg2       trb1=   0.    /deg        trc1=   0.    /deg   
     trb2=   0.    /deg2       trm1=   0.    /deg         xtb=   0.           
     trm2=   0.    /deg2        xti=   3.00               cte=   0.    /deg   
      ctc=   0.    /deg         cts=   0.    /deg        trc2=   0.    /deg2  
     tref=  25.00   deg c       bex=   2.42              bexv=   1.90         

   9*** noise parameters ***
       kf=   0.                  af=   1.00         

 ************************************************************************
 *** bjt model parameters   model name:   0:qp       model type:pnp   ***
 ************************************************************************

     names  values   units     names  values   units     names  values   units
     -----  ------   -----     -----  ------   -----     -----  ------   -----

   1*** basic dc parameters ***
    level=   1.00                bf= 124.20                br=  13.26         
      brs=   0.                bulk=  gnd                  is=  48.15f amps   
      iss=   0.    amps          nf= 989.70m               nr= 989.50m        
       ns=   1.00               ibe=   0.    amps         ibc=   0.    amps   
     subs=  -1.00             expli=   0.    amps   

   2*** low current beta degradation effect parameters ***
      isc= 129.50f amps         ise=  13.89f amps          nc=   1.18         
       ne=   1.60         

   3*** base width modulation parameters ***
      vaf= 222.00  volts        var=  81.40  volts  

   4*** high current beta degradation effect parameters ***
      ikf=   1.60  amps         nkf= 500.00m              ikr= 290.00m amps   

   5*** parasitic resistor parameters ***
      irb=   1.00u amps          rb= 500.00m ohms         rbm= 500.00m ohms   
       re= 165.00m ohms          rc=  96.00m ohms         rcc=   0.    ohms   
       vo=   0.    volts      gamma=   0.           

   6*** junction capacitor parameters ***
     cbcp=   0.    farad       cbep=   0.    farad       ccsp=   0.    farad  
      cjc=  30.40p farad        cje= 124.30p farad        cjs=   0.    farad  
       fc= 935.90m              mjc= 437.10m              mje= 347.60m        
      mjs= 333.00m              vjc= 564.20m volts        vje= 731.30m volts  
      vjs= 750.00m volts       xcjc= 150.00m              qco=   0.    coul   

   7*** transit time parameters ***
      itf=   3.35  amps         ptf=   0.    deg k         tf= 647.80p secs   
       tr=   0.    secs         vtf=   2.65               xtf=  29.00         

   8*** temperature compensation parameters ***
     tlev=   0.               tlevc=   0.                tre1=   0.    /deg   
     tre2=   0.    /deg2       trb1=   0.    /deg        trc1=   0.    /deg   
     trb2=   0.    /deg2       trm1=   0.    /deg         xtb=   0.           
     trm2=   0.    /deg2        xti=   3.00               cte=   0.    /deg   
      ctc=   0.    /deg         cts=   0.    /deg        trc2=   0.    /deg2  
     tref=  25.00   deg c       bex=   2.42              bexv=   1.90         

   9*** noise parameters ***
       kf=   0.                  af=   1.00         

 ************************************************************************
 *** bjt model parameters   model name:   0:bc108n   model type:npn   ***
 ************************************************************************

     names  values   units     names  values   units     names  values   units
     -----  ------   -----     -----  ------   -----     -----  ------   -----

   1*** basic dc parameters ***
    level=   1.00                bf= 200.00                br=   1.00         
      brs=   0.                bulk=  gnd                  is= 1.0e-16 amps   
      iss=   0.    amps          nf=   1.00                nr=   1.00         
       ns=   1.00               ibe=   0.    amps         ibc=   0.    amps   
     subs=   1.00             expli=   0.    amps   

   2*** low current beta degradation effect parameters ***
      isc=   0.    amps         ise=   0.    amps          nc=   2.00         
       ne=   1.50         

   3*** base width modulation parameters ***
      vaf= 100.00  volts        var=   0.    volts  

   4*** high current beta degradation effect parameters ***
      ikf=   0.    amps         nkf= 500.00m              ikr=   0.    amps   

   5*** parasitic resistor parameters ***
      irb=   0.    amps          rb= 100.00  ohms         rbm= 100.00  ohms   
       re=   0.    ohms          rc=   0.    ohms         rcc=   0.    ohms   
       vo=   0.    volts      gamma=   0.           

   6*** junction capacitor parameters ***
     cbcp=   0.    farad       cbep=   0.    farad       ccsp=   0.    farad  
      cjc=   2.00p farad        cje=   3.00p farad        cjs=   2.00p farad  
       fc= 500.00m              mjc= 330.00m              mje= 330.00m        
      mjs= 500.00m              vjc= 750.00m volts        vje= 750.00m volts  
      vjs= 750.00m volts       xcjc=   1.00               qco=   0.    coul   

   7*** transit time parameters ***
      itf=   0.    amps         ptf=   0.    deg k         tf= 300.00p secs   
       tr=   6.00n secs         vtf=   0.                 xtf=   0.           

   8*** temperature compensation parameters ***
     tlev=   0.               tlevc=   0.                tre1=   0.    /deg   
     tre2=   0.    /deg2       trb1=   0.    /deg        trc1=   0.    /deg   
     trb2=   0.    /deg2       trm1=   0.    /deg         xtb=   0.           
     trm2=   0.    /deg2        xti=   3.00               cte=   0.    /deg   
      ctc=   0.    /deg         cts=   0.    /deg        trc2=   0.    /deg2  
     tref=  25.00   deg c       bex=   2.42              bexv=   1.90         

   9*** noise parameters ***
       kf=   0.                  af=   1.00         

 ************************************************************************
 *** bjt model parameters   model name:   0:bc108p   model type:pnp   ***
 ************************************************************************

     names  values   units     names  values   units     names  values   units
     -----  ------   -----     -----  ------   -----     -----  ------   -----

   1*** basic dc parameters ***
    level=   1.00                bf= 100.00                br=   1.00         
      brs=   0.                bulk=  gnd                  is= 1.0e-16 amps   
      iss=   0.    amps          nf=   1.00                nr=   1.00         
       ns=   1.00               ibe=   0.    amps         ibc=   0.    amps   
     subs=  -1.00             expli=   0.    amps   

   2*** low current beta degradation effect parameters ***
      isc=   0.    amps         ise=   0.    amps          nc=   2.00         
       ne=   1.50         

   3*** base width modulation parameters ***
      vaf=  70.00  volts        var=   0.    volts  

   4*** high current beta degradation effect parameters ***
      ikf=   0.    amps         nkf= 500.00m              ikr=   0.    amps   

   5*** parasitic resistor parameters ***
      irb=   0.    amps          rb= 100.00  ohms         rbm= 100.00  ohms   
       re=   0.    ohms          rc=   0.    ohms         rcc=   0.    ohms   
       vo=   0.    volts      gamma=   0.           

   6*** junction capacitor parameters ***
     cbcp=   0.    farad       cbep=   0.    farad       ccsp=   0.    farad  
      cjc=   2.00p farad        cje=   3.00p farad        cjs=   2.00p farad  
       fc= 500.00m              mjc= 330.00m              mje= 330.00m        
      mjs= 500.00m              vjc= 750.00m volts        vje= 750.00m volts  
      vjs= 750.00m volts       xcjc=   1.00               qco=   0.    coul   

   7*** transit time parameters ***
      itf=   0.    amps         ptf=   0.    deg k         tf= 300.00p secs   
       tr=   6.00n secs         vtf=   0.                 xtf=   0.           

   8*** temperature compensation parameters ***
     tlev=   0.               tlevc=   0.                tre1=   0.    /deg   
     tre2=   0.    /deg2       trb1=   0.    /deg        trc1=   0.    /deg   
     trb2=   0.    /deg2       trm1=   0.    /deg         xtb=   0.           
     trm2=   0.    /deg2        xti=   3.00               cte=   0.    /deg   
      ctc=   0.    /deg         cts=   0.    /deg        trc2=   0.    /deg2  
     tref=  25.00   deg c       bex=   2.42              bexv=   1.90         

   9*** noise parameters ***
       kf=   0.                  af=   1.00         

 ************************************************************************
 *** bjt model parameters   model name:   1:qx       model type:npn   ***
 ************************************************************************

     names  values   units     names  values   units     names  values   units
     -----  ------   -----     -----  ------   -----     -----  ------   -----

   1*** basic dc parameters ***
    level=   1.00                bf=  93.75                br=   1.00         
      brs=   0.                bulk=  gnd                  is= 8.0e-16 amps   
      iss=   0.    amps          nf=   1.00                nr=   1.00         
       ns=   1.00               ibe=   0.    amps         ibc=   0.    amps   
     subs=   1.00             expli=   0.    amps   

   2*** low current beta degradation effect parameters ***
      isc=   0.    amps         ise=   0.    amps          nc=   2.00         
       ne=   1.50         

   3*** base width modulation parameters ***
      vaf=   0.    volts        var=   0.    volts  

   4*** high current beta degradation effect parameters ***
      ikf=   0.    amps         nkf= 500.00m              ikr=   0.    amps   

   5*** parasitic resistor parameters ***
      irb=   0.    amps          rb=   0.    ohms         rbm=   0.    ohms   
       re=   0.    ohms          rc=   0.    ohms         rcc=   0.    ohms   
       vo=   0.    volts      gamma=   0.           

   6*** junction capacitor parameters ***
     cbcp=   0.    farad       cbep=   0.    farad       ccsp=   0.    farad  
      cjc=   0.    farad        cje=   0.    farad        cjs=   0.    farad  
       fc= 500.00m              mjc= 330.00m              mje= 330.00m        
      mjs= 500.00m              vjc= 750.00m volts        vje= 750.00m volts  
      vjs= 750.00m volts       xcjc=   1.00               qco=   0.    coul   

   7*** transit time parameters ***
      itf=   0.    amps         ptf=   0.    deg k         tf=   0.    secs   
       tr=   0.    secs         vtf=   0.                 xtf=   0.           

   8*** temperature compensation parameters ***
     tlev=   0.               tlevc=   0.                tre1=   0.    /deg   
     tre2=   0.    /deg2       trb1=   0.    /deg        trc1=   0.    /deg   
     trb2=   0.    /deg2       trm1=   0.    /deg         xtb=   0.           
     trm2=   0.    /deg2        xti=   3.00               cte=   0.    /deg   
      ctc=   0.    /deg         cts=   0.    /deg        trc2=   0.    /deg2  
     tref=  25.00   deg c       bex=   2.42              bexv=   1.90         

   9*** noise parameters ***
       kf=   0.                  af=   1.00         
  **info** (d:\electrical course\t5\prelec\phase2\sp\phase2.sp:67) DC voltage reset to initial transient source value              in source        0:vin                 new dc=  0.8000D+01
  **warning** (d:\electrical course\t5\prelec\phase2\sp\phase2.sp:171) Capacitance of     1.00     for cx is too high. Please verify capacitance value.
 
      
 *****************************************************************
 ******  option summary
 ******
 runlvl  = 5         bypass  = 2         
  Opening plot unit= 79
 file=d:\electrical course\t5\prelec\phase2\sp\phase2.pa0                      


 **info** dc convergence failure, 
 resetting dcon option to 1 and retrying

 no convergence with standard algorithm,  trying damped pseudo-transient

  *** initial damped pseudo transient completed. ***
  *** final try started ***
  *** final try succeeded *** 

 **info** This was a difficult operating point.
             You can speed up your simulation by specifying:
             .OPTION CONVERGE=1

1****** HSPICE -- D-2010.03-SP1 32-BIT (May 26 2010) winnt ******               
 ******  
 project:phase2

  ******  operating point information tnom=  25.000 temp=  25.000 *****
 ***** operating point status is all       simulation time is     0.     
    node    =voltage      node    =voltage      node    =voltage

 +0:10      = -98.8021u 0:11      = -98.8021u 0:101     = -98.8021u
 +0:102     = -98.8021u 0:103     =   3.3000  0:ref     =   3.0036 
 +0:vb15    = 768.9824m 0:vb3     =   1.9282  0:vb4     =   1.9282 
 +0:vb5     = 727.4453m 0:vb7     = 745.2646m 0:vbpan   =   3.8189 
 +0:vbuff   =   2.4497  0:vc14    =   3.2999  0:vc3     =   4.5136 
 +0:vc4     =   4.5118  0:vc8     =   5.2809  0:vc9     =   5.2347 
 +0:vcc     =   6.0073  0:vd      =   3.1343  0:ve3     =   1.2193 
 +0:ve8     =   3.7849  0:vee     =   0.      0:vepa    =   3.1343 
 +0:vf      =   3.0037  0:vi1     =   2.4999  0:vi2     =   2.5000 
 +0:vin     =   8.0000  0:vo      =   6.8278  0:vout    =   0.     
 +0:vx      =   5.1914  0:vy      = 833.9479m 1:6       =-317.9724u
 +1:7       =   7.0055  1:8       =   7.0055  1:9       =   0.     
 +1:10      =   2.4001  1:11      =   7.9605  1:12      =   7.9605 
 +1:13      =   2.4139  1:14      =   2.4139  1:53      =   7.0000 
 +1:54      =   1.0000  1:90      =   3.5544  1:91      =  40.0000 
 +1:92      = -40.0000  1:99      =   4.0000 


 ****  voltage sources

 subckt                                               x_opamp    x_opamp   
 element  0:vin      0:vee      0:vin2     0:vref     1:vb       1:vc      
  volts      8.0000     0.         2.5000     3.3000     0.         1.0000 
  current -359.9665m    3.1915m   -2.3105n    0.        -3.1797n  173.0327f
  power      2.8797     0.         5.7762n    0.         0.      -173.0327f

 subckt   x_opamp    x_opamp    x_opamp                          x_opamp   
 element  1:ve       1:vlp      1:vln      0:vin1     0:vb       1:vlim    
  volts      1.0000    40.0000    40.0000     2.5000     0.         0.     
  current    5.8286p  -36.4464p  -43.5579p   -2.3060n   -2.3060n    3.5544m
  power     -5.8286p    1.4579n    1.7423n    5.7651n    0.         0.     

     total voltage source power dissipation=    2.8797        watts



 ***** current sources

 subckt   x_opamp   
 element  1:iee     
  volts      2.4001 
  current   15.1600u
  power    -36.3858u


     total current source power dissipation= -36.3858u       watts

 **** resistors

 subckt                                                                    
 element  0:r11      0:r22      0:r33      0:r1       0:r2       0:r3      
  r value    6.0000k   10.0000    10.0000    15.0000k   15.0000k   26.5000k
  v drop     4.9964     3.0037     3.0037     1.4937     1.4955     5.2799 
  current  832.7298u  300.3656m  300.3655m   99.5792u   99.6979u  199.2402u
  power      4.1606m  902.1948m  902.1943m  148.7403u  149.0950u    1.0520m

 subckt                                                                    
 element  0:r5       0:r6       0:rx       0:rref1    0:rbuff    0:rref2   
  r value   13.2500k    5.3000k  100.0000x    1.0000k  200.0000   500.0000 
  v drop     5.2620     5.2383  -359.0878a    5.1914     2.4497     5.1734 
  current  397.1356u  988.3639u -3.591e-24    5.1914m   12.2486m   10.3467m
  power      2.0897m    5.1774m    0.        26.9503m   30.0055m   53.5274m

 subckt              x_opamp    x_opamp    x_opamp    x_opamp    x_opamp   
 element  0:rl       1:r2       1:rc1      1:rc2      1:re1      1:re2     
  r value    8.0000   100.0000k    5.3050k    5.3050k    1.8360k    1.8360k
  v drop     0.      -317.9724u   39.4860m   39.4523m   13.8114m   13.7996m
  current    0.        -3.1797n    7.4432u    7.4368u    7.5226u    7.5161u
  power      0.         1.0111p  293.9016n  293.3998n  103.8974n  103.7200n

 subckt   x_opamp    x_opamp    x_opamp    x_opamp   
 element  1:ree      1:ro1      1:ro2      1:rp      
  r value   13.1900x   50.0000   100.0000    18.1600k
  v drop    -1.5999   177.7181m    3.0055     8.0000 
  current -121.2949n    3.5544m   30.0548m  440.5286u
  power    194.0572n  631.6744u   90.3294m    3.5242m


 **** voltage-controlled current sources


 subckt     x_opamp    x_opamp 
 element  1:ga       1:gcm     
  v drop  -317.9724u  317.9724u
  current   -6.3572n   -9.5369n




 **** voltage-controlled voltage sources


 subckt                           x_opamp 
 element  0:e3       0:e4       1:egnd    
  volts    -98.8021u  -98.8021u    4.0000 
  current  3.591e-24   -2.3060n   -3.5545m




 **** current-controlled current sources


   subckt   x_opamp 
 element  1:fb      
  current  -33.6092m




 **** current-controlled voltage sources


 subckt     x_opamp 
 element  1:hlim    
  volts      3.5544 
  current   -7.1090p




 **** diodes


 subckt                                      x_opamp    x_opamp    x_opamp 
 element  0:dz       0:d1       0:d2       1:dc       1:de       1:dlp     
 model    0:dzener   0:d1n4148  0:d1n4148  1:dx       1:dx       1:dx      
  id      -832.6505u    5.0224m    5.0224m -799.0190a -800.0000a -800.0000a
  vd        -3.0036   684.6021m  684.6021m -172.2336m   -5.8278   -36.4456 
  req       30.8555     9.9240     9.9240   2.619e+16    0.         0.     
  cap        0.         1.1169n    1.1169n    0.         0.         0.     



 subckt     x_opamp    x_opamp 
 element  1:dln      1:dp      
 model    1:dx       1:dx      
  id      -800.0000a -800.0000a
  vd       -43.5544    -8.0000 
  req        0.         0.     
  cap        0.         0.     




 **** bipolar junction transistors


 subckt                                                                    
 element  0:qc       0:q1       0:q2       0:q3       0:q4       0:q5      
 model    0:qbd135p  0:bc107n   0:bc107n   0:bc107n   0:bc107n   0:bc107n  
  ib         3.5544m    2.3090n    2.3134n  480.3031n  481.2264n  986.3367n
  ic       358.6784m  477.9917n  478.9106n   98.5443u   98.7319u  198.2377u
  vbe      820.4555m  571.7264m  571.7758m  708.9074m  708.9568m  727.4453m
  vce        1.9927     4.0791     4.0791     3.2944     3.2926     1.2193 
  vbc       -1.1722    -3.5074    -3.5073    -2.5854    -2.5836  -491.8221m
  vs        -7.9656    -6.0073    -6.0073    -4.5136    -4.5118    -1.2193 
  power    717.6507m    1.9511u    1.9548u  324.9803u  325.4235u  242.4223u
  betad    100.9122   207.0148   207.0146   205.1710   205.1673   200.9838 
  gm        11.9104    18.6002u   18.6359u    3.8347m    3.8420m    7.7140m
  rpi        7.1549    11.1270x   11.1056x   53.4909k   53.3883k   26.0477k
  rx       500.0000m  100.0000   100.0000   100.0000   100.0000   100.0000 
  ro       616.3456   216.5465x  216.1308x    1.0410x    1.0390x  506.9263k
  cpi       14.8394n    3.7603p    3.7603p    5.0864p    5.0886p    6.2749p
  cmu        2.8130p    1.1277p    1.1277p    1.2222p    1.2225p    1.6934p
  cbx       15.9475p    0.         0.         0.         0.         0.     
  ccs        0.       666.3059f  666.3059f  754.9501f  755.0778f    1.2343p
  betaac    85.2177   206.9634   206.9632   205.1196   205.1159   200.9325 
  ft       127.5792x  605.6369k  606.7907k   96.7415x   96.8877x  154.0768x



 subckt                                                                    
 element  0:q6       0:q7       0:q8       0:q9       0:q10      0:q11     
 model    0:bc107n   0:bc107n   0:bc107n   0:bc107n   0:bc107p   0:bc107p  
  ib       986.3367n    1.9660u  965.9323n    1.0349u   -3.7437u   -3.7437u
  ic       197.2675u  405.1556u  194.6724u  208.4823u -187.1851u -187.3088u
  vbe      727.4453m  745.2646m  726.9062m  728.6862m -726.3731m -726.3731m
  vce      727.4453m    3.7849     1.4960     1.4497  -726.3731m -772.6318m
  vbc        0.        -3.0397  -769.0951m -721.0564m    0.        46.2588m
  vs      -727.4453m   -3.7849    -5.2809    -5.2347    -5.2813    -5.2813 
  power    144.2188u    1.5350m  291.9324u  302.9998u  138.6855u  147.4400u
  betad    200.0002   206.0797   201.5384   201.4423    50.0003    50.0333 
  gm         7.6762m   15.7659m    7.5753m    8.1127m    7.2831m    7.2879m
  rpi       26.0477k   13.0680k   26.5980k   24.8243k    6.8627k    6.8627k
  rx       100.0000   100.0000   100.0000   100.0000   100.0000   100.0000 
  ro       506.9263k  254.3217k  517.6346k  483.1161k  373.9634k  373.9634k
  cpi        6.2636p    8.7144p    6.2326p    6.3961p    6.1441p    6.1455p
  cmu        1.9999p    1.1718p    1.5844p    1.6013p    1.9997p    1.9606p
  cbx        0.         0.         0.         0.         0.         0.     
  ccs        1.4250p  813.3454f  705.2908f  708.0113f  705.2689f  705.2689f
  betaac   199.9488   206.0284   201.4870   201.3909    49.9819    50.0150 
  ft       147.8448x  253.8092x  154.2341x  161.4477x  142.3356x  143.0912x



 subckt                                                                    
 element  0:q17      0:q14      0:q15      0:q16      0:qiref1   0:qiref2  
 model    0:bc107n   0:bc107p   0:bc107n   0:bc107n   0:bc108p   0:bc108p  
  ib         1.9660u  -21.1735u    4.8929u    4.8929u  -50.8921u  -50.8921u
  ic       393.2035u   -1.0880m    1.0033m  978.5781u   -5.1894m   -5.0896m
  vbe      745.2646m -772.6318m  768.9824m  768.9824m -815.9426m -815.9426m
  vce      745.2646m   -2.7074     3.2999   768.9824m   -2.1884  -815.9426m
  vbc        0.         1.9348    -2.5309     0.         1.3725     0.     
  vs      -745.2646m   -5.2368    -3.2999  -768.9824m   -5.1965    -5.1965 
  power    294.5059u    2.9619m    3.3147m  756.2719u   11.3979m    4.1943m
  betad    200.0004    51.3835   205.0628   200.0010   101.9679   100.0073 
  gm        15.3007m   42.3318m   39.0433m   38.0793m  201.9122m  198.0284m
  rpi       13.0680k    1.2134k    5.2509k    5.2509k  504.8293   504.8293 
  rx       100.0000   100.0000   100.0000   100.0000   100.0000   100.0000 
  ro       254.3217k   66.1203k  102.1896k  102.1896k   13.7546k   13.7546k
  cpi        8.5749p   16.7211p   15.7303p   15.4411p   64.6658p   63.5007p
  cmu        1.9998p    1.3126p    1.2289p    1.9996p    1.4178p    1.9955p
  cbx        0.         0.         0.         0.         0.         0.     
  ccs        1.4165p  707.8861f  860.6735f    1.4053p  710.2831f  710.2831f
  betaac   199.9490    51.3651   205.0114   199.9496   101.9312    99.9706 
  ft       230.2834x  373.5936x  366.4050x  347.4921x  486.2833x  481.2065x



 subckt                                                            x_opamp 
 element  0:qbuff    0:qiref3   0:qiref4   0:qpan     0:qpap     1:q1      
 model    0:bc108n   0:bc108n   0:bc108n   0:qn       0:qp       1:qx      
  ib        84.6246u   51.2188u   51.2188u  166.9660u -166.7692u   79.3938n
  ic        17.3846m   10.4098m   10.2443m   20.4790m  -20.4792m    7.4432u
  vbe      850.1888m  833.9479m  833.9479m  684.6171m -684.5870m  589.7231m
  vce        3.5576     2.4497   833.9479m    2.8730    -3.1343     5.5466 
  vbc       -2.7074    -1.6158     0.        -2.1884     2.4497    -4.9569 
  vs        -6.0073    -2.4497  -833.9479m   -6.0053    -2.4498    -7.9605 
  power     61.9193m   25.5437m    8.5859m   58.9508m   64.3022m   41.3310u
  betad    205.4317   203.2418   200.0102   122.6539   122.7998    93.7500 
  gm       676.4880m  405.0769m  398.6345m  795.0178m  795.0372m  289.7095u
  rpi      303.5979   501.6095   501.6095   152.3658   152.5456   323.6001k
  rx       100.0000   100.0000   100.0000   500.0000m  500.0000m    0.     
  ro         5.9084k    9.7620k    9.7620k   10.8564k   10.8691k  6.196e+15
  cpi      207.1082p  125.6478p  123.7151p  680.5722p  680.5175p    0.     
  cmu        1.2069p    1.3680p    1.9955p    2.2816p    2.1928p    0.     
  cbx        0.         0.         0.        12.9291p   12.4262p    0.     
  ccs      666.3059f  968.2893f    1.3762p    0.         0.         0.     
  betaac   205.3804   203.1904   199.9589   121.1335   121.2794    93.7500 
  ft       516.8439x  507.5744x  504.6880x  181.8542x  182.0277x   46.1087g



 subckt     x_opamp 
 element  1:q2      
 model    1:qx      
  ib        79.3260n
  ic         7.4368u
  vbe      589.7011m
  vce        5.5466 
  vbc       -4.9569 
  vs        -7.9605 
  power     41.2960u
  betad     93.7500 
  gm       289.4620u
  rpi      323.8767k
  rx         0.     
  ro       6.196e+15
  cpi        0.     
  cmu        0.     
  cbx        0.     
  ccs        0.     
  betaac    93.7500 
  ft        46.0693g




          ***** job concluded
1****** HSPICE -- D-2010.03-SP1 32-BIT (May 26 2010) winnt ******               
 ******  
 project:phase2

  ******  job statistics summary tnom=  25.000 temp=  25.000 *****

  ******  HSPICE Threads Information  ******

  Command Line Threads Count                  :     1
  Available CPU Count                         :     8
  Actual Model Evaluation(Load) Threads Count :     1
  Actual Solver Threads Count                 :     1


  ******  Circuit Statistics  ******
  # nodes       =      85 # elements   =      81
  # resistors   =      22 # capacitors =       6 # inductors   =       0
  # mutual_inds =       0 # vccs       =       2 # vcvs        =       3
  # cccs        =       1 # ccvs       =       1 # volt_srcs   =      12
  # curr_srcs   =       1 # diodes     =       8 # bjts        =      25
  # jfets       =       0 # mosfets    =       0 # U elements  =       0
  # T elements  =       0 # W elements =       0 # B elements  =       0
  # S elements  =       0 # P elements =       0 # va device   =       0


  ******  Runtime Statistics (seconds)  ******

  analysis           time    # points   tot. iter  conv.iter
  op point           0.03           1         768
  transient          0.06          21         304          90 rev=        16
  readin             0.06
  errchk             0.01
  setup              0.02
  output             0.00


           total memory used          358  kbytes
           total cpu time            0.21 seconds
           total elapsed time        0.26 seconds
           job started at     15:28:31 02/06/2020
           job ended   at     15:28:32 02/06/2020


  lic: Release hspice token(s) 
